/*--------------------------------*- C++ -*----------------------------------*\
| =========                 |                                                 |
| \\      /  F ield         | OpenFOAM: The Open Source CFD Toolbox           |
|  \\    /   O peration     | Version:  2.0.1                                 |
|   \\  /    A nd           | Web:      www.OpenFOAM.com                      |
|    \\/     M anipulation  |                                                 |
\*---------------------------------------------------------------------------*/
FoamFile
{
    version     2.0;
    format      ascii;
    class       dictionary;
    object      blockMeshDict;
}
// * * * * * * * * * * * * * * * * * * * * * * * * * * * * * * * * * * * * * //

convertToMeters 0.001; // does nothing in this case, 0.1 would shrink it by 10x

// Cylinder extends from -400mm to 480mm
// Cylinder diameter 179mm -> radius 89.5mm
// Outer domain radius: 400mm

vertices   // (x y z) 
(
    (-89.5     0  480) // 0
    (-400      0  480) // 1
    ( 400      0  480) // 2
    ( 89.5     0  480) // 3
    (-89.5     0 -400) // 4
    (-400      0 -400) // 5
    ( 400      0 -400) // 6
    ( 89.5     0 -400) // 7
);

blocks          
(
    hex (0 1 2 3 4 5 6 7) (20 30 50) simpleGrading (1 1 1) // (20 40 60)
);

edges           
(
    arc 3 0 (0 89.5  480)
    arc 4 7 (0 89.5 -400)

    arc 2 1 (0 400  480)
    arc 5 6 (0 400 -400)
);

boundary
(
    cyclic0
    {
        type    patch;
        neighbourPatch  cyclic1;
        faces   ((0 1 5 4));
    }
    cyclic1
    {
        type    patch;
        neighbourPatch  cyclic0;
        faces   ((2 3 7 6));
    }

    body
    {
        type    wall;
        faces   ((3 0 4 7));
    }

    freestream
    {
        type    patch;
        faces   ((1 2 6 5));
    }

    inlet
    {
        type    patch;
        faces   ((1 0 3 2));
    }

    outlet
    {
        type    patch;
        faces   ((5 6 7 4));
    }
);

mergePatchPairs
(
);

// ************************************************************************* //
