/*--------------------------------*- C++ -*----------------------------------*\
| =========                 |                                                 |
| \\      /  F ield         | OpenFOAM: The Open Source CFD Toolbox           |
|  \\    /   O peration     | Version:  4.x                                   |
|   \\  /    A nd           | Web:      www.OpenFOAM.org                      |
|    \\/     M anipulation  |                                                 |
\*---------------------------------------------------------------------------*/
FoamFile
{
    version     2.0;
    format      ascii;
    class       volScalarField;
    object      p;
}
// * * * * * * * * * * * * * * * * * * * * * * * * * * * * * * * * * * * * * //

dimensions      [1 -1 -2 0 0 0 0];

internalField   uniform 110000;

boundaryField
{
    defaultFaces
    {
        type            zeroGradient;
    }
    inlet
    {
        type            zeroGradient;
        //type            mixed;
        refValue        uniform 110000;
        refGradient     uniform 0;
        valueFraction   uniform 0.3;
    }
    outlet
    {
        type            fixedValue;
        value           uniform 110000;

        //type            mixed;
        //refValue        uniform 110000;
        //refGradient     uniform 0;
        //valueFraction   uniform 1;
        //type            transonicOutletPressure;
        //U               U;
        //phi             phi;
        //gamma           1.4;
        //psi             psi;
        //pInf            uniform 110000;
    }



    sides
    {
        type            fixedValue;
        value           uniform 110000;

        //type            mixed;
        //refValue        uniform 110000;
        //refGradient     uniform 0;
        //valueFraction   uniform 1;
        //type            transonicOutletPressure;
        //U               U;
        //phi             phi;
        //gamma           1.4;
        //psi             psi;
        //pInf            uniform 110000;
    }

    rocket_boattail
    {
        type            zeroGradient;
    }

    rocket_body
    {
        type            zeroGradient;
    }

    rocket_fin1
    {
        type            zeroGradient;
    }

    rocket_fin2
    {
        type            zeroGradient;
    }

    rocket_fin3
    {
        type            zeroGradient;
    }

    rocket_nosecone
    {
        type            zeroGradient;
    }
}


// ************************************************************************* //
