/*--------------------------------*- C++ -*----------------------------------*\
| =========                 |                                                 |
| \\      /  F ield         | OpenFOAM: The Open Source CFD Toolbox           |
|  \\    /   O peration     | Version:  4.x                                   |
|   \\  /    A nd           | Web:      www.OpenFOAM.org                      |
|    \\/     M anipulation  |                                                 |
\*---------------------------------------------------------------------------*/
FoamFile
{
    version     2.0;
    format      ascii;
    class       dictionary;
    location    "system";
    object      controlDict;
}
// * * * * * * * * * * * * * * * * * * * * * * * * * * * * * * * * * * * * * //

application     rhoSimpleFoam;

startFrom       latestTime;

startTime       0;

stopAt          writeNow;

endTime         500;

deltaT          1;

writeControl    timeStep;

writeInterval   10;

purgeWrite      0;

writeFormat     ascii;

writePrecision  7;

writeCompression off;

timeFormat      general;

timePrecision   6;

graphFormat     raw;

runTimeModifiable true;

functions
{
    #includeFunc MachNo
    #includeFunc residuals
    
    forces
    {
        type forces;                             // class
        //enabled true;
        functionObjectLibs ("libforces.so");     // req. lib.; libforces.dylib for mac
        patches (rocket);                      // name of patches
        rho     rhoInf;
        rhoInf 1.0;                              // ref. Density
        CofR (0.33333 0 0);                      // origin of center of rotation
        outputControl outputTime;
        log on;
    }
    forceCoeffs
    {
        type forceCoeffs;                        // class
        functionObjectLibs ("libforces.so");     // req. lib.; libforces.dylib for mac
        patches    (rocket);                   // name of patches
        rho        rhoInf;
        rhoInf     1;                            // ref. Density
        CofR       (0.33333 0 0);                // origin of center of rotation
        pitchAxis  (0 0 1);
        liftDir    (-0.1 1   0);
        dragDir    ( 1   0.1 0);
        magUInf    1;
        lRef       1;
        Aref       1;
        outputControl outputTime;
    }
}



// ************************************************************************* //
