/*--------------------------------*- C++ -*----------------------------------*\
| =========                 |                                                 |
| \\      /  F ield         | OpenFOAM: The Open Source CFD Toolbox           |
|  \\    /   O peration     | Version:  4.x                                   |
|   \\  /    A nd           | Web:      www.OpenFOAM.org                      |
|    \\/     M anipulation  |                                                 |
\*---------------------------------------------------------------------------*/
FoamFile
{
	version		2.0;
	format		ascii;
	class		dictionary;
	object		blockMeshDict;
}
// * * * * * * * * * * * * * * * * * * * * * * * * * * * * * * * * * * * * * //

convertToMeters 1;

vertices
(
	(-1 -1 0)	//  0
	( 1 -1 0)	//  1
	( 1  1 0)	//  2
	(-1  1 0)	//  3

	(-1 -1 1)	//  4
	( 1 -1 1)	//  5
	( 1  1 1)	//  6
	(-1  1 1)	//  7

	(-2 -2 0)	//  8
	(-2  2 0)	//  9

	(-2 -2 1)	// 10
	(-2  2 1)	// 11
);

blocks
(
	hex (0  1  2  3    4  5  6  7) (10 10 5) simpleGrading (1 1 1)
	hex (0  3  9  8    4  7 11 10) (10 10 5) simpleGrading (1 1 1)
);

edges
(
	arc  9  8 (-2.828 0 0)
	arc 11 10 (-2.828 0 1)
);

boundary
(
/*
	inlet
	{
		type patch;
		faces
		(
			(4 5 6 7)
		);
	}
	
	outlet
	{
		type patch;
		faces
		(
			(0 3 2 1)
		);
	}

	sides
	{
		type wall;
		faces
		(
			(7 6 2 3)
			(6 5 1 2)
			(5 4 0 1)
			(4 7 3 0)
		);
	}
*/
);

mergePatchPairs
(
);

// ************************************************************************* //
