/*--------------------------------*- C++ -*----------------------------------*\
| =========                 |                                                 |
| \\      /  F ield         | OpenFOAM: The Open Source CFD Toolbox           |
|  \\    /   O peration     | Version:  4.0                                   |
|   \\  /    A nd           | Web:      www.OpenFOAM.org                      |
|    \\/     M anipulation  |                                                 |
\*---------------------------------------------------------------------------*/
FoamFile
{
    version     2.0;
    format      ascii;
    class       volVectorField;
    location    "0";
    object      U;
}
// * * * * * * * * * * * * * * * * * * * * * * * * * * * * * * * * * * * * * //

dimensions      [0 1 -1 0 0 0 0];

// Speed of sound is a = 347.19

// Mach 3
//Uinlet          (1041.57 0 0);
Uinlet          (0 0 -10);

internalField   uniform (0 0 0);

boundaryField
{
    "(inlet|outlet|outerSides)"
    {
        type            uniformFixedValue;
	uniformValue table
	(
		(0 (0 0 -0))
		(0.14285714285714285 (0 0 -42.0))
		(0.42857142857142855 (0 0 -42.0))
		(0.5 (0 0 -84.0))
		(0.6428571428571428 (0 0 -84.0))
		(0.6904761904761905 (0 0 -126.0))
		(0.7857142857142857 (0 0 -126.0))
		(0.8214285714285714 (0 0 -168.0))
		(0.8928571428571428 (0 0 -168.0))
		(0.9214285714285714 (0 0 -210.0))
		(0.9785714285714285 (0 0 -210.0))
		(1.0023809523809524 (0 0 -252.0))
		(1.05 (0 0 -252.0))
		(1.0704081632653062 (0 0 -294.0))
		(1.1112244897959185 (0 0 -294.0))
		(1.1290816326530613 (0 0 -336.0))
		(1.164795918367347 (0 0 -336.0))
		(1.180668934240363 (0 0 -378.0))
		(1.2124149659863948 (0 0 -378.0))
		(1.226700680272109 (0 0 -420.0))
		(1.2552721088435375 (0 0 -420.0))
	);
    }
    rocket
    {
        type            slip;
    }

    sym
    {
        type symmetry;
    }
    

/*
    outlet
    {
        type            inletOutlet;
        inletValue      uniform (0 0 -10);
        value           uniform (0 0 -10);
    }
    outerSides
    {
        type            freestream;
        freestreamValue uniform $Uinlet;
        value           uniform $Uinlet;
    }

    "(cyc_half.*)"
    {
        type cyclic;
    }
*/
}


// ************************************************************************* //
