/*--------------------------------*- C++ -*----------------------------------*\
| =========                 |                                                 |
| \\      /  F ield         | OpenFOAM: The Open Source CFD Toolbox           |
|  \\    /   O peration     | Version:  4.x                                   |
|   \\  /    A nd           | Web:      www.OpenFOAM.org                      |
|    \\/     M anipulation  |                                                 |
\*---------------------------------------------------------------------------*/
FoamFile
{
    version     2.0;
    format      ascii;
    class       volScalarField;
    object      T;
}
// * * * * * * * * * * * * * * * * * * * * * * * * * * * * * * * * * * * * * //

dimensions      [0 0 0 1 0 0 0];

internalField   uniform 1000;

boundaryField
{
    Default_Boundary_Region
    {
        type            zeroGradient;
    }

    inlet
    {
        type            fixedValue;
        value           uniform 1000;
    }

    outlet
    {
        type            inletOutlet;
        //type            zeroGradient;
        value           uniform 1000;
        inletValue      uniform 1000;
    }

    sides
    {
        type            inletOutlet;
        //type            zeroGradient;
        value           uniform 1000;
        inletValue      uniform 1000;
    }

    rocket_boattail
    {
        type            zeroGradient;
    }

    rocket_body
    {
        type            zeroGradient;
    }

    rocket_fin1
    {
        type            zeroGradient;
    }

    rocket_fin2
    {
        type            zeroGradient;
    }

    rocket_fin3
    {
        type            zeroGradient;
    }

    rocket_nosecone
    {
        type            zeroGradient;
    }
}

// ************************************************************************* //
