/*--------------------------------*- C++ -*----------------------------------*\
| =========                 |                                                 |
| \\      /  F ield         | OpenFOAM: The Open Source CFD Toolbox           |
|  \\    /   O peration     | Version:  4.x                                   |
|   \\  /    A nd           | Web:      www.OpenFOAM.org                      |
|    \\/     M anipulation  |                                                 |
\*---------------------------------------------------------------------------*/
FoamFile
{
    version     2.0;
    format      ascii;
    class       dictionary;
    location    "system";
    object      fvSolution;
}
// * * * * * * * * * * * * * * * * * * * * * * * * * * * * * * * * * * * * * //

tol		1e-4;

solvers
{
	p
    {
        solver          GAMG;
        smoother        GaussSeidel;
        tolerance       1e-6;
        relTol          0.01;
    }

    "(U|k|omega|e)"
    {
        solver          PBiCGStab;
        preconditioner  DILU;
        tolerance       1e-6;
        relTol          0.1;
    }
}


SIMPLE
{
    residualControl
    {
        p               $tol;
        U               $tol;
        "(k|omega|e)"   $tol;
    }

    nNonOrthogonalCorrectors 0;
    pMinFactor      0.1;
    pMaxFactor      2;
    
    // https://www.cfd-online.com/Forums/openfoam-solving/105598-foam-fatal-io-error-unable-set-reference-cell-field-p-please-supply.html
    pRefCell		0;
    pRefValue		0;
}

relaxationFactors
{
    fields
    {
        p               0.7;
        rho             0.01;
    }
    equations
    {
        U               0.3;
        e               0.7;
        "(k|omega)"     0.7;
    }
}

// ************************************************************************* //
