/*--------------------------------*- C++ -*----------------------------------*\
| =========                 |                                                 |
| \\      /  F ield         | OpenFOAM: The Open Source CFD Toolbox           |
|  \\    /   O peration     | Version:  2.0.1                                 |
|   \\  /    A nd           | Web:      www.OpenFOAM.com                      |
|    \\/     M anipulation  |                                                 |
\*---------------------------------------------------------------------------*/
FoamFile
{
    version     2.0;
    format      ascii;
    class       dictionary;
    object      blockMeshDict;
}
// * * * * * * * * * * * * * * * * * * * * * * * * * * * * * * * * * * * * * //

convertToMeters 1; // does nothing in this case, 0.1 would shrink it by 10x

vertices   // (x y z)   
(
    ( 0  0 -4.7)
    ( 1  0 -4.7)
    ( 1  1 -4.7)
    ( 0  1 -4.7)
    ( 0  0    1)
    ( 1  0    1)
    ( 1  1    1)
    ( 0  1    1)
);

blocks          
(
    // (50 50 285)
    // (12 12 71)
    hex (0 1 2 3 4 5 6 7) (12 12 71) simpleGrading (1 1 1)
);

edges           
(
);

patches
(
 /*
    patch maxY 
    (
        (3 7 6 2)
    )
    patch minX
    (
        (0 4 7 3)
    )
    patch maxX
    (
        (2 6 5 1)
    )
    patch minY
    (
        (1 5 4 0)
    )
    patch minZ
    (
        (0 3 2 1)
    )
    patch maxZ
    (
        (4 5 6 7)
    )
*/
    patch inlet
    (
        (4 5 6 7)
    )

    patch outlet
    (
        (0 3 2 1)
    )

    patch outerSides
    (
        (3 7 6 2)
        (2 6 5 1)
    )

    patch cyclic0
    (
        (0 4 7 3)
    )

    patch cyclic1
    (
        (1 5 4 0)
    )
);

mergePatchPairs
(
);

// ************************************************************************* //
