/*--------------------------------*- C++ -*----------------------------------*\
| =========                 |                                                 |
| \\      /  F ield         | OpenFOAM: The Open Source CFD Toolbox           |
|  \\    /   O peration     | Version:  4.x                                   |
|   \\  /    A nd           | Web:      www.OpenFOAM.org                      |
|    \\/     M anipulation  |                                                 |
\*---------------------------------------------------------------------------*/
FoamFile
{
    version     2.0;
    format      ascii;
    class       volScalarField;
    location    "0";
    object      k;
}
// * * * * * * * * * * * * * * * * * * * * * * * * * * * * * * * * * * * * * //

// https://develop.openfoam.com/Development/OpenFOAM-plus/blob/master/tutorials/compressible/rhoSimpleFoam/aerofoilNACA0012/0/k

kInlet          0.01;

dimensions      [0 2 -2 0 0 0 0];

internalField   uniform $kInlet;

boundaryField
{
    "(inlet|outlet|outerSides)"
    {
        type            inletOutlet;
        inletValue      uniform $kInlet;
        value           uniform $kInlet;
    }

    sym
    {
        type symmetry;
    }
    
    "(rocket|airbrakes)"
    {
        type            kqRWallFunction;
        value           uniform $kInlet;
    }
}

// ************************************************************************* //
