/*--------------------------------*- C++ -*----------------------------------*\
| =========                 |                                                 |
| \\      /  F ield         | OpenFOAM: The Open Source CFD Toolbox           |
|  \\    /   O peration     | Version:  v1906                                 |
|   \\  /    A nd           | Web:      www.OpenFOAM.com                      |
|    \\/     M anipulation  |                                                 |
\*---------------------------------------------------------------------------*/
FoamFile
{
    version     2.0;
    format      ascii;
    class       volScalarField;
    object      omega;
}
// * * * * * * * * * * * * * * * * * * * * * * * * * * * * * * * * * * * * * //
// https://develop.openfoam.com/Development/OpenFOAM-plus/blob/master/tutorials/compressible/rhoSimpleFoam/aerofoilNACA0012/0/omega

// airfoil

omegaInlet      10;

dimensions      [0 0 -1 0 0 0 0];

internalField   uniform $omegaInlet;

boundaryField
{
    "(inlet|outlet|outerSides)"
    {
        type            inletOutlet;
        inletValue      uniform $omegaInlet;
        value           uniform $omegaInlet;
    }

    sym
    {
        type symmetry;
    }
    
    "(rocket|airbrakes)"
    {
        type            omegaWallFunction;
        value           uniform $omegaInlet;
    }

}

// ************************************************************************* //
