/*--------------------------------*- C++ -*----------------------------------*\
| =========                 |                                                 |
| \\      /  F ield         | OpenFOAM: The Open Source CFD Toolbox           |
|  \\    /   O peration     | Version:  4.0                                   |
|   \\  /    A nd           | Web:      www.OpenFOAM.org                      |
|    \\/     M anipulation  |                                                 |
\*---------------------------------------------------------------------------*/
FoamFile
{
    version     2.0;
    format      ascii;
    class       volVectorField;
    location    "0";
    object      U;
}
// * * * * * * * * * * * * * * * * * * * * * * * * * * * * * * * * * * * * * //

dimensions      [0 1 -1 0 0 0 0];

// Speed of sound is a = 310.213

Uinlet          (0 0 -10);

internalField   uniform (0 0 0);

boundaryField
{
    "(inlet|outlet|outerSides)"
    {
        type            uniformFixedValue;
	uniformValue table
	(
		(0 (0 0 -0))
		(0.3760856787648057 (0 0 -18.61278))
		(3.5996772110345683 (0 0 -18.61278))
		(3.7877200504169712 (0 0 -37.22556))
		(5.399515816551853 (0 0 -37.22556))
		(5.524877709473455 (0 0 -55.83834))
		(6.599408220230043 (0 0 -55.83834))
		(6.693429639921244 (0 0 -74.45112))
		(7.499327522988684 (0 0 -74.45112))
		(7.574544658741646 (0 0 -93.0639))
		(8.219262965195599 (0 0 -93.0639))
		(8.2819439116564 (0 0 -111.67668))
		(8.819209167034694 (0 0 -111.67668))
		(8.872935692572524 (0 0 -130.28946000000002))
		(9.333448768611062 (0 0 -130.28946000000002))
		(9.380459478456663 (0 0 -148.90224))
		(9.783408419990383 (0 0 -148.90224))
		(9.825195717630917 (0 0 -167.51502))
		(10.18337255454978 (0 0 -167.51502))
		(10.220981122426261 (0 0 -186.12779999999998))
		(10.543340275653238 (0 0 -186.12779999999998))
		(10.577529882813675 (0 0 -204.74057999999997))
		(10.870583658474562 (0 0 -204.74057999999997))
		(10.901924131704963 (0 0 -223.35335999999995))
		(11.17055675939411 (0 0 -223.35335999999995))
		(11.199486426991403 (0 0 -241.96613999999994))
		(11.447455006396769 (0 0 -241.96613999999994))
		(11.474318269165684 (0 0 -260.5789199999999))
		(11.704574807184953 (0 0 -260.5789199999999))
		(11.729647185769274 (0 0 -279.1916999999999))
		(11.944553287920591 (0 0 -279.1916999999999))
		(11.968058642843392 (0 0 -297.8044799999999))
		(12.169533113610251 (0 0 -297.8044799999999))
		(12.191655800596417 (0 0 -316.4172599999999))
		(12.381278831906403 (0 0 -316.4172599999999))
		(12.402172480726671 (0 0 -335.0300399999999))
		(12.581260899186102 (0 0 -335.0300399999999))
		(12.601054882278987 (0 0 -353.64281999999986))
		(12.770717594503711 (0 0 -353.64281999999986))
		(12.78952187844195 (0 0 -372.25559999999984))
		(12.95070145505544 (0 0 -372.25559999999984))
	);

    }
    "(rocket|airbrakes)"
    {
        type            slip;
    }

    sym
    {
        type symmetry;
    }
    
}


// ************************************************************************* //
