/*---------------------------------------------------------------------------*\
| =========                 |                                                 |
| \\      /  F ield         | OpenFOAM: The Open Source CFD Toolbox           |
|  \\    /   O peration     | Version:  4.0                                   |
|   \\  /    A nd           | Web:      www.OpenFOAM.org                      |
|    \\/     M anipulation  |                                                 |
\*---------------------------------------------------------------------------*/
FoamFile
{
    version     2.0;
    format      ascii;
    class       dictionary;
    location    "system";
    object      controlDict;
}
// * * * * * * * * * * * * * * * * * * * * * * * * * * * * * * * * * * * * * //

application     rhoPimpleFoam;

startFrom       startTime;

startTime       0;

stopAt          endTime;

endTime         1.42;

deltaT          1e-4;

//writeControl    adjustableRunTime;

//writeInterval   0.1;

writeControl    timeStep;

writeInterval   1000;

purgeWrite      0;

writeFormat     ascii;

writePrecision  10;

writeCompression off;

timeFormat      general;

timePrecision   6;

runTimeModifiable true;

adjustTimeStep  yes;

maxCo           0.9;

maxDeltaT       1e-03;

// ************************************************************************* //

functions
{

///////////////////////////////////////////////////////////////////////////

    minmaxdomain
    {
        type fieldMinMax;
        
        functionObjectLibs ("libfieldFunctionObjects.so");
        
        enabled true;
        
        mode component;
        
        writeControl timeStep;
        writeInterval 1;
        
        log true;
        
        fields (p U T rho);
    }

    forces_airbrakes
    {
        type forces;

        functionObjectLibs ("libforces.so");
        patches
        (
            airbrakes
        );

        rho rhoInf;
        rhoInf 0.557;
        CofR (0 0 0);
    }

    forces_rocket
    {
        type forces;

        functionObjectLibs ("libforces.so");
        patches
        (
            rocket
        );

        rho rhoInf;
        rhoInf 0.557;
        CofR (0 0 0);
    }

    forces_total
    {
        type forces;

        functionObjectLibs ("libforces.so");
        patches
        (
            rocket
            airbrakes
        );

        rho rhoInf;
        rhoInf 0.557;
        CofR (0 0 0);
    }

///////////////////////////////////////////////////////////////////////////

}
