/*---------------------------------------------------------------------------*\
| =========                 |                                                 |
| \\      /  F ield         | OpenFOAM: The Open Source CFD Toolbox           |
|  \\    /   O peration     | Version:  4.0                                   |
|   \\  /    A nd           | Web:      www.OpenFOAM.org                      |
|    \\/     M anipulation  |                                                 |
\*---------------------------------------------------------------------------*/
FoamFile
{
    version     2.0;
    format      ascii;
    class       dictionary;
    location    "system";
    object      controlDict;
}
// * * * * * * * * * * * * * * * * * * * * * * * * * * * * * * * * * * * * * //

application     rhoPimpleFoam;

startFrom       startTime;

startTime       0;

stopAt          endTime;

endTime         1.3;

deltaT          1e-4;

//writeControl    adjustableRunTime;

//writeInterval   0.1;

writeControl    timeStep;

writeInterval   1000;

purgeWrite      0;

writeFormat     ascii;

writePrecision  10;

writeCompression off;

timeFormat      general;

timePrecision   6;

runTimeModifiable true;

adjustTimeStep  yes;

maxCo           0.9;

maxDeltaT       1e-03;

// ************************************************************************* //

functions
{

///////////////////////////////////////////////////////////////////////////

    minmaxdomain
    {
        type fieldMinMax;
        
        functionObjectLibs ("libfieldFunctionObjects.so");
        
        enabled true;
        
        mode component;
        
        writeControl timeStep;
        writeInterval 1;
        
        log true;
        
        fields (p U T rho);
    }

///////////////////////////////////////////////////////////////////////////

}
