/*--------------------------------*- C++ -*----------------------------------*\
| =========                 |                                                 |
| \\      /  F ield         | OpenFOAM: The Open Source CFD Toolbox           |
|  \\    /   O peration     | Version:  4.0                                   |
|   \\  /    A nd           | Web:      www.OpenFOAM.org                      |
|    \\/     M anipulation  |                                                 |
\*---------------------------------------------------------------------------*/
FoamFile
{
    version     2.0;
    format      ascii;
    class       dictionary;
    location    "system";
    object      changeDictionaryDict;
}
// * * * * * * * * * * * * * * * * * * * * * * * * * * * * * * * * * * * * * //

U
{
	boundaryField
	{
	    "(inlet|outlet|sides|freestream)"
		{
		type            freestream;
		freestreamValue uniform (0 0 -50);
		value           uniform (0 0 -50);
	    }

	    "(cyc.*)"
	    {
		type cyclic;
	    }
	    
	    "(rocket|body|airbrakes_.*)"
	    {
		type            noSlip;
	    }
	}
}

// * * * * * * * * * * * * * * * * * * * * * * * * * * * * * * * * * * * * * //
