/*--------------------------------*- C++ -*----------------------------------*\
| =========                 |                                                 |
| \\      /  F ield         | OpenFOAM: The Open Source CFD Toolbox           |
|  \\    /   O peration     | Version:  4.0                                   |
|   \\  /    A nd           | Web:      www.OpenFOAM.org                      |
|    \\/     M anipulation  |                                                 |
\*---------------------------------------------------------------------------*/
FoamFile
{
    version     2.0;
    format      ascii;
    class       volScalarField;
    location    "0";
    object      p;
}
// * * * * * * * * * * * * * * * * * * * * * * * * * * * * * * * * * * * * * //

dimensions      [1 -1 -2 0 0 0 0];

internalField   uniform 100000;

boundaryField
{
    inlet
    {
        type            fixedValue;
        value           $internalField;
    }
    outlet
    {
        type            zeroGradient;
    }
    rocket
    {
        type            slip;
    }
    outerSides
    {
        type            freestream;
        freestreamValue uniform 100000;
        value           uniform 100000;
	//type	fixedValue;
	//value	uniform 100000;
	//type	zeroGradient;
    }

    "(cyc_half.*)"
    {
        type cyclic;
    }

    sym
    {
        type symmetry;
    }
    
}


// ************************************************************************* //
