/*--------------------------------*- C++ -*----------------------------------*\
| =========                 |                                                 |
| \\      /  F ield         | OpenFOAM: The Open Source CFD Toolbox           |
|  \\    /   O peration     | Version:  4.x                                   |
|   \\  /    A nd           | Web:      www.OpenFOAM.org                      |
|    \\/     M anipulation  |                                                 |
\*---------------------------------------------------------------------------*/
FoamFile
{
    version     2.0;
    format      ascii;
    class       volScalarField;
    object      T;
}
// * * * * * * * * * * * * * * * * * * * * * * * * * * * * * * * * * * * * * //

Tinlet			292.15;

dimensions      [0 0 0 1 0 0 0];

internalField   uniform $Tinlet;

boundaryField
{
    "(inlet|outlet|sides|cyclic.*|freestream)"
    {
        type            inletOutlet;
        inletValue      uniform $Tinlet;
        value           $inletValue;
    }

    "(cyc.*)"
    {
        type cyclic;
    }
    
    "(rocket|body|airbrakes_.*)"
    {
        type            zeroGradient;
    }
}

// ************************************************************************* //
