/*--------------------------------*- C++ -*----------------------------------*\
| =========                 |                                                 |
| \\      /  F ield         | OpenFOAM: The Open Source CFD Toolbox           |
|  \\    /   O peration     | Version:  4.x                                   |
|   \\  /    A nd           | Web:      www.OpenFOAM.org                      |
|    \\/     M anipulation  |                                                 |
\*---------------------------------------------------------------------------*/
FoamFile
{
    version     2.0;
    format      ascii;
    class       volVectorField;
    object      U;
}
// * * * * * * * * * * * * * * * * * * * * * * * * * * * * * * * * * * * * * //

dimensions      [0 1 -1 0 0 0 0];

Uinlet			(0 0 -40);

internalField   uniform $Uinlet;

boundaryField
{
    "(inlet|outlet|sides|freestream)"
	{
        type            freestream;
        freestreamValue uniform $Uinlet;
        value           uniform $Uinlet;
    }

    "(cyc.*)"
    {
        type cyclic;
    }
    
    "(rocket|body|airbrakes_.*)"
    {
        type            noSlip;
    }
}

// ************************************************************************* //
