/*--------------------------------*- C++ -*----------------------------------*\
| =========                 |                                                 |
| \\      /  F ield         | OpenFOAM: The Open Source CFD Toolbox           |
|  \\    /   O peration     | Version:  4.x                                   |
|   \\  /    A nd           | Web:      www.OpenFOAM.org                      |
|    \\/     M anipulation  |                                                 |
\*---------------------------------------------------------------------------*/
FoamFile
{
    version     2.0;
    format      ascii;
    class       volScalarField;
    object      p;
}
// * * * * * * * * * * * * * * * * * * * * * * * * * * * * * * * * * * * * * //

pOut			100000;

dimensions      [1 -1 -2 0 0 0 0];

internalField   uniform $pOut;

boundaryField
{

	"(inlet|outlet|sides)"
    {
        type            freestreamPressure;
        freestreamValue uniform $pOut;
    }

    rocket
    {
		type			zeroGradient;
    }

    // inlet
    // {
        // type            fixedValue;
        // value           uniform 100000;
    // }

/*
    outlet
    {
        type            waveTransmissive;
        field           p;
        psi             thermo:psi;
        gamma           1.3;
        fieldInf        100000;
        lInf            1;
        value           uniform 100000;
    }
*/
	
	// "(outlet|sides)"
    // {
        // type            inletOutlet;
        // inletValue      uniform 100000;
        // value           uniform 100000;
    // }
    /*
	"(inlet|outlet|sides)"
    {
        type            freestreamPressure;
        freestreamValue uniform 100000;
		//type            inletOutlet;
        //inletValue      uniform 100000;
        //value           uniform 100000;
    }

    
	/*
    sides
    {
		type			zeroGradient;
	}
	

    rocket
    {
		type			zeroGradient;
    }
 
/*
    bottomWall
    {
        type            zeroGradient;
    }

    topWall
    {
        type            zeroGradient;
    }

    prismWall
    {
        type            zeroGradient;
    }

    defaultFaces
    {
        type            empty;
    }
*/
}

// ************************************************************************* //
