/*---------------------------------------------------------------------------*\
| =========                 |                                                 |
| \\      /  F ield         | OpenFOAM: The Open Source CFD Toolbox           |
|  \\    /   O peration     | Version:  4.0                                   |
|   \\  /    A nd           | Web:      www.OpenFOAM.org                      |
|    \\/     M anipulation  |                                                 |
\*---------------------------------------------------------------------------*/
FoamFile
{
    version     2.0;
    format      ascii;
    class       dictionary;
    location    "system";
    object      fvSolution;
}
// * * * * * * * * * * * * * * * * * * * * * * * * * * * * * * * * * * * * * //

solvers
{
    "rho.*"
    {
        solver          diagonal;
    }

    "(U.*|p.*)"
    {
        solver          smoothSolver;
        smoother        GaussSeidel;
        nSweeps         2;
        tolerance       1e-09;
        relTol          0.01;
    }

    "h.*"
    {
        $U;
        tolerance       1e-10;
        relTol          0;
    }
}

PIMPLE
{
    momentumPredictor           yes;
    nOuterCorrectors            1;
    nCorrectors                 3;
    nNonOrthogonalCorrectors    2;

    transonic                   yes;

    maxCo                   0.5; //0.9 (D)
    rDeltaTSmoothingCoeff   0.1;
    rDeltaTDampingCoeff     0.9; //1
    maxDeltaT                 1;

    //Old way
    //rhoMin          0.5;
    //rhoMax          2.0;

    //New way
    pMin          10000;
    pMax          1000000;
    //pMinFactor      0.5;
    //pMaxFactor      2.0;
}

relaxationFactors
{
    equations
    {
        ".*" 1;
    }
}
// ************************************************************************* //
