/*--------------------------------*- C++ -*----------------------------------*\
| =========                 |                                                 |
| \\      /  F ield         | OpenFOAM: The Open Source CFD Toolbox           |
|  \\    /   O peration     | Version:  4.0                                   |
|   \\  /    A nd           | Web:      www.OpenFOAM.org                      |
|    \\/     M anipulation  |                                                 |
\*---------------------------------------------------------------------------*/
FoamFile
{
    version     2.0;
    format      ascii;
    class       volScalarField;
    location    "0";
    object      Ma;
}
// * * * * * * * * * * * * * * * * * * * * * * * * * * * * * * * * * * * * * //

dimensions      [0 0 0 0 0 0 0];

internalField   uniform 0.3000305;

boundaryField
{
    inlet
    {
        type            calculated;
        value           uniform 0.3000305;
    }
    outlet
    {
        type            calculated;
        value           uniform 0.3000305;
    }
    sides
    {
        type            calculated;
        value           uniform 0.3000305;
    }
    rocket
    {
        type            calculated;
        value           uniform 0;
    }
}


// ************************************************************************* //
