/*--------------------------------*- C++ -*----------------------------------*\
| =========                 |                                                 |
| \\      /  F ield         | OpenFOAM: The Open Source CFD Toolbox           |
|  \\    /   O peration     | Version:  4.x                                   |
|   \\  /    A nd           | Web:      www.OpenFOAM.org                      |
|    \\/     M anipulation  |                                                 |
\*---------------------------------------------------------------------------*/
FoamFile
{
    version     2.0;
    format      ascii;
    class       dictionary;
    object      blockMeshDict;
}
// * * * * * * * * * * * * * * * * * * * * * * * * * * * * * * * * * * * * * //

convertToMeters 0.001;

vertices
(
	(-1000 -1000 -1700)
	(1000 -1000 -1700)
	(1000 1000 -1700)
	(-1000 1000 -1700)

	(-1000 -1000 3300)
	(1000 -1000 3300)
	(1000 1000 3300)
	(-1000 1000 3300)
);

blocks
(
	hex (0 1 2 3  4 5 6 7) (20 20 50) simpleGrading (1 1 1)
);

edges
(	
);

boundary
(
	inlet
	{
		type patch;
		faces
		(
			(4 5 6 7)
		);
	}
	
	outlet
	{
		type patch;
		faces
		(
			(0 3 2 1)
		);
	}

	sides
	{
		type wall;
		faces
		(
			(7 6 2 3)
			(6 5 1 2)
			(5 4 0 1)
			(4 7 3 0)
		);
	}
);

mergePatchPairs
(
);

// ************************************************************************* //
