/*--------------------------------*- C++ -*----------------------------------*\
| =========                 |                                                 |
| \\      /  F ield         | OpenFOAM: The Open Source CFD Toolbox           |
|  \\    /   O peration     | Version:  4.0                                   |
|   \\  /    A nd           | Web:      www.OpenFOAM.org                      |
|    \\/     M anipulation  |                                                 |
\*---------------------------------------------------------------------------*/
FoamFile
{
    version     2.0;
    format      ascii;
    class       volVectorField;
    location    "0";
    object      U;
}
// * * * * * * * * * * * * * * * * * * * * * * * * * * * * * * * * * * * * * //

dimensions      [0 1 -1 0 0 0 0];

// Speed of sound is a = 310.213

Uinlet          (0 0 -10);

internalField   uniform (0 0 0);

boundaryField
{
    "(inlet|outlet|outerSides)"
    {
        type            uniformFixedValue;
	    uniformValue table
	    (
	    	(0 (0 0 -0))
	    	(0.18804283938240285 (0 0 -37.22556))
	    	(0.7253080947606967 (0 0 -37.22556))
	    	(0.8193295144518982 (0 0 -74.45112))
	    	(1.087962142141045 (0 0 -74.45112))
	    	(1.150643088601846 (0 0 -111.67668))
	    	(1.3297315070612772 (0 0 -111.67668))
	    	(1.376742216906878 (0 0 -148.90224))
	    	(1.5110585307514515 (0 0 -148.90224))
	    	(1.548667098627932 (0 0 -186.1278))
	    	(1.656120149703591 (0 0 -186.1278))
	    	(1.6874606229339915 (0 0 -223.35336))
	    	(1.777004832163707 (0 0 -223.35336))
	    	(1.8038680949326218 (0 0 -260.57892000000004))
	    	(1.880620274272378 (0 0 -260.57892000000004))
	    	(1.9041256291951785 (0 0 -297.80448))
	    	(1.9712837861174652 (0 0 -297.80448))
	    	(1.9921774349377321 (0 0 -335.03004))
	    	(2.051873574424209 (0 0 -335.03004))
	    	(2.0706778583624494 (0 0 -372.25559999999996))
	    	(2.124404383900279 (0 0 -372.25559999999996))
	    );
/* OLD VALUES
	uniformValue table
	(
		(0 (0 0 -0))
		(0.16117957661348814 (0 0 -37.22556))
		(0.4835387298404644 (0 0 -37.22556))
		(0.5641285181472084 (0 0 -74.45112))
		(0.7253080947606966 (0 0 -74.45112))
		(0.779034620298526 (0 0 -111.67668))
		(0.8864876713741847 (0 0 -111.67668))
		(0.9267825655275568 (0 0 -148.90224))
		(1.007372353834301 (0 0 -148.90224))
		(1.0396082691569986 (0 0 -186.1278))
		(1.1040800998023939 (0 0 -186.1278))
		(1.1309433625713086 (0 0 -223.35336))
		(1.184669888109138 (0 0 -223.35336))
		(1.2076955419110649 (0 0 -260.57892000000004))
		(1.2537468495149187 (0 0 -260.57892000000004))
		(1.2738942965916047 (0 0 -297.80448))
		(1.3141891907449768 (0 0 -297.80448))
		(1.33209803259092 (0 0 -335.03004))
		(1.3679157162828062 (0 0 -335.03004))
		(1.384033673944155 (0 0 -372.25559999999996))
		(1.4162695892668526 (0 0 -372.25559999999996))
	);
*/
    }
    "(rocket|airbrakes)"
    {
        type            slip;
    }

    sym
    {
        type symmetry;
    }
    

/*
    outlet
    {
        type            inletOutlet;
        inletValue      uniform (0 0 -10);
        value           uniform (0 0 -10);
    }
    outerSides
    {
        type            freestream;
        freestreamValue uniform $Uinlet;
        value           uniform $Uinlet;
    }

    "(cyc_half.*)"
    {
        type cyclic;
    }
*/
}


// ************************************************************************* //
