/*--------------------------------*- C++ -*----------------------------------*\
| =========                 |                                                 |
| \\      /  F ield         | OpenFOAM: The Open Source CFD Toolbox           |
|  \\    /   O peration     | Version:  4.x                                   |
|   \\  /    A nd           | Web:      www.OpenFOAM.org                      |
|    \\/     M anipulation  |                                                 |
\*---------------------------------------------------------------------------*/
FoamFile
{
    version     2.0;
    format      ascii;
    class       volScalarField;
    object      p;
}
// * * * * * * * * * * * * * * * * * * * * * * * * * * * * * * * * * * * * * //

pOut			95540;

dimensions      [1 -1 -2 0 0 0 0];

internalField   uniform $pOut;

boundaryField
{

	"(inlet|outlet|sides)"
    {
        // type            freestreamPressure;
        // freestreamValue uniform $pOut;
		type            freestream;
        freestreamValue uniform $pOut;
        value           uniform $pOut;
    }

    rocket
    {
		type			zeroGradient;
    }
}

// ************************************************************************* //
