/*--------------------------------*- C++ -*----------------------------------*\
| =========                 |                                                 |
| \\      /  F ield         | OpenFOAM: The Open Source CFD Toolbox           |
|  \\    /   O peration     | Version:  4.0                                   |
|   \\  /    A nd           | Web:      www.OpenFOAM.org                      |
|    \\/     M anipulation  |                                                 |
\*---------------------------------------------------------------------------*/
FoamFile
{
    version     2.0;
    format      ascii;
    class       volVectorField;
    location    "0";
    object      U;
}
// * * * * * * * * * * * * * * * * * * * * * * * * * * * * * * * * * * * * * //

dimensions      [0 1 -1 0 0 0 0];

// Speed of sound is a = 310.213

Uinlet          (0 0 -10);

internalField   uniform (0 0 0);

boundaryField
{
    "(inlet|outlet|outerSides)"
    {
        type            uniformFixedValue;
	uniformValue table
	(
		(0 (0 0 -0))
		(0.6447183064539526 (0 0 -9.30639))
		(2.0416079704375165 (0 0 -9.30639))
		(2.3639671236644926 (0 0 -18.61278))
		(3.0624119556562746 (0 0 -18.61278))
		(3.277318057807592 (0 0 -27.91917))
		(3.7429479458021135 (0 0 -27.91917))
		(3.904127522415602 (0 0 -37.22556))
		(4.253349938411493 (0 0 -37.22556))
		(4.382293599702283 (0 0 -46.53195))
		(4.661671532498996 (0 0 -46.53195))
		(4.769124583574655 (0 0 -55.83834))
		(5.001939527571915 (0 0 -55.83834))
		(5.094042142779623 (0 0 -65.14473000000001))
		(5.293597809062989 (0 0 -65.14473000000001))
		(5.374187597369733 (0 0 -74.45112))
		(5.548798805367679 (0 0 -74.45112))
		(5.620434172751452 (0 0 -83.75751))
		(5.775644135416292 (0 0 -83.75751))
		(5.8401159660616875 (0 0 -93.06389999999999))
		(5.979804932460044 (0 0 -93.06389999999999))
		(6.038415687592222 (0 0 -102.37028999999998))
		(6.165405657045273 (0 0 -102.37028999999998))
		(6.2191321825831025 (0 0 -111.67667999999998))
		(6.335539654581733 (0 0 -111.67667999999998))
		(6.385133370462806 (0 0 -120.98306999999997))
		(6.492586421538465 (0 0 -120.98306999999997))
		(6.5386377291423186 (0 0 -130.28945999999996))
		(6.638415562284002 (0 0 -130.28945999999996))
		(6.681396782714265 (0 0 -139.59584999999996))
		(6.77452276031317 (0 0 -139.59584999999996))
		(6.814817654466542 (0 0 -148.90223999999995))
		(6.902123258465514 (0 0 -148.90223999999995))
		(6.940047864727512 (0 0 -158.20862999999994))
		(7.022217844961839 (0 0 -158.20862999999994))
		(7.058035528653725 (0 0 -167.51501999999994))
		(7.135640509986145 (0 0 -167.51501999999994))
		(7.16957305243109 (0 0 -176.82140999999993))
		(7.243093561061804 (0 0 -176.82140999999993))
		(7.275329476384502 (0 0 -186.12779999999992))
		(7.34517395958368 (0 0 -186.12779999999992))
		(7.3758748313195825 (0 0 -195.43418999999992))
		(7.442393386747371 (0 0 -195.43418999999992))
		(7.47169876431346 (0 0 -204.7405799999999))
		(7.535193749039985 (0 0 -204.7405799999999))
		(7.5632249797553746 (0 0 -214.0469699999999))
		(7.623959312972051 (0 0 -214.0469699999999))
		(7.650822575740966 (0 0 -223.3533599999999))
		(7.709026311740281 (0 0 -223.3533599999999))
		(7.73481504399844 (0 0 -232.6597499999999))
		(7.7906906305577825 (0 0 -232.6597499999999))
		(7.815487488498319 (0 0 -241.96613999999988))
		(7.869214014036149 (0 0 -241.96613999999988))
		(7.89309246983074 (0 0 -251.27252999999988))
		(7.944829124052354 (0 0 -251.27252999999988))
		(7.9678547778542805 (0 0 -260.57891999999987))
		(8.017743694425121 (0 0 -260.57891999999987))
		(8.039975360164913 (0 0 -269.8853099999999))
		(8.088143969267795 (0 0 -269.8853099999999))
		(8.109634579482927 (0 0 -279.1916999999999))
		(8.15619756828238 (0 0 -279.1916999999999))
		(8.176994933006702 (0 0 -288.49808999999993))
		(8.222055889909397 (0 0 -288.49808999999993))
		(8.242203336986083 (0 0 -297.80447999999996))
		(8.28585613898557 (0 0 -297.80447999999996))
		(8.305393057362963 (0 0 -307.11087))
		(8.347723047180647 (0 0 -307.11087))
		(8.366685350311645 (0 0 -316.41726))
		(8.407770340428808 (0 0 -316.41726))
		(8.42619086347035 (0 0 -325.72365))
		(8.466101996727023 (0 0 -325.72365))
		(8.484010838572965 (0 0 -335.03004000000004))
		(8.522813329239176 (0 0 -335.03004000000004))
		(8.540238148332525 (0 0 -344.33643000000006))
		(8.577991923034784 (0 0 -344.33643000000006))
		(8.594958194257256 (0 0 -353.6428200000001))
		(8.631718448572613 (0 0 -353.6428200000001))
		(8.648249687199637 (0 0 -362.9492100000001))
		(8.684067370891524 (0 0 -362.9492100000001))
		(8.700185328552873 (0 0 -372.25560000000013))
		(8.735107570152461 (0 0 -372.25560000000013))
	);

    }
    "(rocket|airbrakes)"
    {
        type            slip;
    }

    sym
    {
        type symmetry;
    }
    

/*
    outlet
    {
        type            inletOutlet;
        inletValue      uniform (0 0 -10);
        value           uniform (0 0 -10);
    }
    outerSides
    {
        type            freestream;
        freestreamValue uniform $Uinlet;
        value           uniform $Uinlet;
    }

    "(cyc_half.*)"
    {
        type cyclic;
    }
*/
}


// ************************************************************************* //
