/*--------------------------------*- C++ -*----------------------------------*\
| =========                 |                                                 |
| \\      /  F ield         | OpenFOAM: The Open Source CFD Toolbox           |
|  \\    /   O peration     | Version:  4.0                                   |
|   \\  /    A nd           | Web:      www.OpenFOAM.org                      |
|    \\/     M anipulation  |                                                 |
\*---------------------------------------------------------------------------*/
FoamFile
{
    version     2.0;
    format      ascii;
    class       volVectorField;
    location    "0";
    object      U;
}
// * * * * * * * * * * * * * * * * * * * * * * * * * * * * * * * * * * * * * //

dimensions      [0 1 -1 0 0 0 0];

// Speed of sound is a = 310.213

Uinlet          (0 0 -10);

internalField   uniform (0 0 0);

boundaryField
{
    "(inlet|outlet|outerSides)"
    {
        type            uniformFixedValue;
	    uniformValue table
	    (
	    	(0 (0 0 -0))
	    	(0.7521713575296114 (0 0 -9.30639))
	    	(2.9012323790427867 (0 0 -9.30639))
	    	(3.2773180578075927 (0 0 -18.61278))
	    	(4.35184856856418 (0 0 -18.61278))
	    	(4.602572354407384 (0 0 -27.91917))
	    	(5.318926028245109 (0 0 -27.91917))
	    	(5.506968867627512 (0 0 -37.22556))
	    	(6.044234123005806 (0 0 -37.22556))
	    	(6.194668394511728 (0 0 -46.53195))
	    	(6.624480598814364 (0 0 -46.53195))
	    	(6.749842491735966 (0 0 -55.83834))
	    	(7.108019328654828 (0 0 -55.83834))
	    	(7.215472379730487 (0 0 -65.14473000000001))
	    	(7.522481097089512 (0 0 -65.14473000000001))
	    	(7.616502516780714 (0 0 -74.45112))
	    	(7.885135144469861 (0 0 -74.45112))
	    	(7.9687097397509286 (0 0 -83.75751))
	    	(8.207494297696837 (0 0 -83.75751))
	    	(8.282711433449798 (0 0 -93.06389999999999))
	    	(8.497617535601115 (0 0 -93.06389999999999))
	    	(8.56599674992199 (0 0 -102.37028999999998))
	    	(8.761365933695915 (0 0 -102.37028999999998))
	    	(8.824046880156716 (0 0 -111.67667999999998))
	    	(9.003135298616147 (0 0 -111.67667999999998))
	    	(9.060994633810733 (0 0 -120.98306999999997))
	    	(9.226307020080977 (0 0 -120.98306999999997))
	    	(9.280033545618807 (0 0 -130.28945999999996))
	    	(9.43353790429832 (0 0 -130.28945999999996))
	    	(9.48368266146696 (0 0 -139.59584999999996))
	    	(9.626953396234505 (0 0 -139.59584999999996))
	    	(9.673964106080106 (0 0 -148.90223999999995))
	    	(9.80828041992468 (0 0 -148.90223999999995))
	    	(9.85252579389701 (0 0 -158.20862999999994))
	    	(9.978941148103667 (0 0 -158.20862999999994))
	    	(10.0207284457442 (0 0 -167.51501999999994))
	    	(10.140120724717155 (0 0 -167.51501999999994))
	    	(10.179708690902924 (0 0 -176.82140999999993))
	    	(10.292817165719407 (0 0 -176.82140999999993))
	    	(10.330425733595888 (0 0 -186.12779999999992))
	    	(10.437878784671547 (0 0 -186.12779999999992))
	    	(10.473696468363434 (0 0 -195.43418999999992))
	    	(10.576032707483108 (0 0 -195.43418999999992))
	    	(10.610222314643545 (0 0 -204.7405799999999))
	    	(10.707906906530507 (0 0 -204.7405799999999))
	    	(10.740610009031794 (0 0 -214.0469699999999))
	    	(10.834047444749759 (0 0 -214.0469699999999))
	    	(10.86538791798016 (0 0 -223.3533599999999))
	    	(10.954932127209876 (0 0 -223.3533599999999))
	    	(10.985018981511061 (0 0 -232.6597499999999))
	    	(11.070981422371588 (0 0 -232.6597499999999))
	    	(11.09991108996888 (0 0 -241.96613999999988))
	    	(11.182567283104003 (0 0 -241.96613999999988))
	    	(11.210425481531026 (0 0 -251.27252999999988))
	    	(11.290020334179662 (0 0 -251.27252999999988))
	    	(11.316883596948577 (0 0 -260.57891999999987))
	    	(11.393635776288333 (0 0 -260.57891999999987))
	    	(11.419572719651423 (0 0 -269.8853099999999))
	    	(11.493678272117394 (0 0 -269.8853099999999))
	    	(11.518750650701715 (0 0 -279.1916999999999))
	    	(11.590386018085487 (0 0 -279.1916999999999))
	    	(11.614649610263863 (0 0 -288.49808999999993))
	    	(11.683974159344933 (0 0 -288.49808999999993))
	    	(11.707479514267733 (0 0 -297.80447999999996))
	    	(11.77463767119002 (0 0 -297.80447999999996))
	    	(11.797430742630311 (0 0 -307.11087))
	    	(11.862553803888286 (0 0 -307.11087))
	    	(11.884676490874451 (0 0 -316.41726))
	    	(11.94788416797778 (0 0 -316.41726))
	    	(11.969374778192911 (0 0 -325.72365))
	    	(12.030776521664716 (0 0 -325.72365))
	    	(12.051670170484984 (0 0 -335.03004000000004))
	    	(12.11136630997146 (0 0 -335.03004000000004))
	    	(12.131695265580369 (0 0 -344.33643000000006))
	    	(12.189777995891536 (0 0 -344.33643000000006))
	    	(12.209571978984421 (0 0 -353.6428200000001))
	    	(12.266126216392662 (0 0 -353.6428200000001))
	    	(12.285412661457524 (0 0 -362.9492100000001))
	    	(12.340516790214272 (0 0 -362.9492100000001))
	    	(12.359321074152511 (0 0 -372.25560000000013))
	    	(12.41304759969034 (0 0 -372.25560000000013))
	    );
    }
    "(rocket|airbrakes)"
    {
        type            slip;
    }

    sym
    {
        type symmetry;
    }
    

/*
    outlet
    {
        type            inletOutlet;
        inletValue      uniform (0 0 -10);
        value           uniform (0 0 -10);
    }
    outerSides
    {
        type            freestream;
        freestreamValue uniform $Uinlet;
        value           uniform $Uinlet;
    }

    "(cyc_half.*)"
    {
        type cyclic;
    }
*/
}


// ************************************************************************* //
